*SOILS: General DSSAT Soil Input File

*DE02157980  DEU         -99     200 -99
@SITE        COUNTRY          LAT     LONG SCS FAMILY
 -99         DE            48.375   11.708 -99
@ SCOM  SALB  SLU1  SLDR  SLRO  SLNF  SLPF  SMHB  SMPX  SMKE
    BK  0.10  6.00  0.50  75.0  1.00  1.00 SA001 SA001 SA001
@  SLB  SLMH  SLLL  SDUL  SSAT  SRGF  SSKS  SBDM  SLOC  SLCL  SLSI  SLCF  SLNI  SLHW  SLHB  SCEC  SADC
     5     A 0.108 0.236 0.391 1.000 1.060  1.29 3.190  17.7  40.0   -99  0.12  6.20   -99 21.20   -99
    15     A 0.118 0.247 0.394 0.850 0.900  1.31 2.700  19.4  39.2   -99  0.09  6.28   -99 18.50   -99
    30    AB 0.133 0.262 0.399 0.700 0.710  1.34 2.060  21.9  38.0   -99  0.07  6.37   -99 18.00   -99
    60    BA 0.147 0.276 0.403 0.500 0.570  1.39 1.320  24.3  36.8   -99  0.06  6.48   -99 18.90   -99
   100     B 0.146 0.274 0.402 0.380 0.580  1.45 0.770  24.1  36.2   -99  0.05  6.62   -99 19.00   -99
   200    BC 0.136 0.262 0.398 0.050 0.700  1.51 0.440  22.5  35.9   -99  0.05  6.80   -99 18.90   -99
