*SOILS: General DSSAT Soil Input File

*DE02157980  DEU         -99     200 -99
@SITE        COUNTRY          LAT     LONG SCS FAMILY
 -99         DE            48.375   11.708 -99
@ SCOM  SALB  SLU1  SLDR  SLRO  SLNF  SLPF  SMHB  SMPX  SMKE
    BK  0.10  6.00  0.50  75.0  1.00  1.00 SA001 SA001 SA001
@  SLB  SLMH  SLLL  SDUL  SSAT  SRGF  SSKS  SBDM  SLOC  SLCL  SLSI  SLCF  SLNI  SLHW  SLHB  SCEC  SADC
     5     A 0.108 0.236 0.391 1.000 1.060  1.29 3.190  17.7  40.0   -99  0.12  6.20   -99 21.20   -99
    10     A 0.113 0.241 0.393 0.925 0.980  1.30 2.945  18.5  39.6   -99  0.10  6.24   -99 19.85   -99
    20    AB 0.123 0.252 0.396 0.800 0.837  1.32 2.487  20.2  38.8   -99  0.08  6.31   -99 18.33   -99
    30    AB 0.133 0.262 0.399 0.700 0.710  1.34 2.060  21.9  38.0   -99  0.07  6.37   -99 18.00   -99
    40    AB 0.138 0.267 0.400 0.633 0.663  1.36 1.813  22.7  37.6   -99  0.07  6.41   -99 18.30   -99
    50    AB 0.142 0.271 0.402 0.567 0.617  1.37 1.567  23.5  37.2   -99  0.06  6.44   -99 18.60   -99
    60    BA 0.147 0.276 0.403 0.500 0.570  1.39 1.320  24.3  36.8   -99  0.06  6.48   -99 18.90   -99
    70    BA 0.147 0.276 0.403 0.470 0.573  1.40 1.183  24.2  36.7   -99  0.06  6.52   -99 18.92   -99
    90    BA 0.146 0.275 0.402 0.410 0.577  1.44 0.907  24.1  36.4   -99  0.05  6.58   -99 18.98   -99
   110     B 0.145 0.273 0.402 0.409 0.592  1.46 0.737  23.9  36.2   -99  0.05  6.64   -99 18.99   -99
   130     B 0.143 0.270 0.401 0.351 0.616  1.47 0.671  23.6  36.1   -99  0.05  6.67   -99 18.97   -99
   150     B 0.141 0.268 0.400 0.325 0.640  1.48 0.605  23.3  36.1   -99  0.05  6.71   -99 18.95   -99
   170     B 0.139 0.266 0.399 0.259 0.664  1.49 0.539  23.0  36.0   -99  0.05  6.75   -99 18.93   -99
   190     B 0.137 0.263 0.398 0.213 0.688  1.50 0.473  22.7  35.9   -99  0.05  6.78   -99 18.91   -99
   210    BC 0.136 0.262 0.398 0.180 0.700  1.51 0.440  22.5  35.9   -99  0.05  6.80   -99 18.90   -99
