*MODEL INPUT FILE            A    15     1    15    15     0
*FILES              
MODEL          WHAPS048
FILEX          TUDU1501.WHX                                                                                 
FILEA          TUDU1501.WHA                                                                                 
FILET          TUDU1501.WHT                                                                                 
SPECIES        WHAPS048.SPE C:\DSSAT48\GENOTYPE\                                                            
ECOTYPE        WHAPS048.ECO C:\DSSAT48\GENOTYPE\                                                            
CULTIVAR       WHAPS048.CUL C:\DSSAT48\GENOTYPE\                                                            
PESTS          WHAPS048.PST C:\DSSAT48\PEST\                                                                
SOILS          DE.SOL                                                                                       
WEATHERW       TUDU1501.WTH                                                                                 
OUTPUT         OVERVIEW
*SIMULATION CONTROL 
                   1     1     S   15077  2150 Duernast 2015 Spring     
                   Y     Y     N     N     N     N     N     Y     M
                   M     M     E     R     S     C     R     1     G     S     2     D     0
                   R     N     R     N     R
                   N     Y     Y     1     Y     Y     Y     Y     Y     N     Y     N     Y
!AUTOMATIC MANAGEM  
                   -99     -99  -99.  -99.  -99.  -99.  -99.
                -99.  -99.  -99.   -99   -99 -99.0 *****
                -99.  -99.  -99.   -99   -99
                -99.   -99  -99.
                   -99     -99  100.    0.
*EXP.DETAILS        
  1TUDU1501 WH                                                             
*TREATMENTS         
 15 1 0 0 15                       
*CULTIVARS          
   WH AW0005 Bacanora 88     
*FIELDS             
   TUDU0001 TUDU1501   0.0  -99.   -99  -99. 100.0   -99 -99    -99. DE02157980-99.00 -99.0
     11.6905317307   48.4033851624   470.600               1.0  100.   1.0 -99.0   -99   -99
*INITIAL CONDITIONS 
   WH      15070  1200     0  1.00  1.00 -99.0  1500  0.90  0.00  100.   15.
      5. 0.223 0.300  3.10
     15. 0.234 0.300  3.10
     20. 0.249 0.300  3.10
     30. 0.249 0.300  3.10
     40. 0.269 0.300  3.10
     50. 0.269 0.300  3.10
     60. 0.269 0.300  3.10
     70. 0.268 0.300  3.10
     90. 0.268 0.300  3.10
    110. 0.264 0.300  3.10
    130. 0.259 0.300  3.10
    150. 0.259 0.300  3.10
    170. 0.259 0.300  3.10
    190. 0.259 0.300  3.10
    210. 0.259 0.300  3.10
*PLANTING DETAILS   
     15077     -99 400.0 400.0     S     R   12.    0.   2.5  -99.  -99. -99.0 -99.0   0.0
*IRRIGATION         
   1.000    0.    0.    0. GS000 IR001   0.0
*FERTILIZERS        
*RESIDUES           
*CHEMICALS          
*TILLAGE            
     15077 TI024  10.0
*ENVIRONMENT        
*HARVEST            
     15237   -99   -99   -99  100.    0.
*SOIL               
 DE02157980  DEU         -99    -99. -99                                               
 -99         DE           48.375  11.708 -99                                               
 BK     0.10   6.0  0.50   75.  1.00  1.00 SA001 SA001 SA001 -99  
    5.       0.108 0.236 0.391 1.000  1.06  1.29 3.190  17.7  40.0 -99.0 0.120  6.20-99.00 21.20-99.00
   15.       0.118 0.246 0.395 0.863 0.909  1.31 2.716  19.4  39.2 -99.0 0.090  6.28-99.00 19.09-99.00
   20.       0.123 0.252 0.396 0.800 0.837  1.32 2.487  20.2  38.8 -99.0 0.080  6.31-99.00 18.33-99.00
   30.       0.133 0.262 0.399 0.700 0.710  1.34 2.060  21.9  38.0 -99.0 0.070  6.37-99.00 18.00-99.00
   40.       0.138 0.267 0.400 0.633 0.663  1.36 1.813  22.7  37.6 -99.0 0.070  6.41-99.00 18.30-99.00
   50.       0.142 0.271 0.402 0.567 0.617  1.37 1.567  23.5  37.2 -99.0 0.060  6.44-99.00 18.60-99.00
   60.       0.147 0.276 0.403 0.500 0.570  1.39 1.320  24.3  36.8 -99.0 0.060  6.48-99.00 18.90-99.00
   70.       0.147 0.276 0.403 0.470 0.573  1.40 1.183  24.2  36.7 -99.0 0.060  6.52-99.00 18.92-99.00
   90.       0.146 0.275 0.402 0.410 0.577  1.44 0.907  24.1  36.4 -99.0 0.050  6.58-99.00 18.98-99.00
  110.       0.145 0.273 0.402 0.409 0.592  1.46 0.737  23.9  36.2 -99.0 0.050  6.64-99.00 18.99-99.00
  130.       0.143 0.270 0.401 0.351 0.616  1.47 0.671  23.6  36.1 -99.0 0.050  6.67-99.00 18.97-99.00
  150.       0.141 0.268 0.400 0.325 0.640  1.48 0.605  23.3  36.1 -99.0 0.050  6.71-99.00 18.95-99.00
  170.       0.139 0.266 0.399 0.259 0.664  1.49 0.539  23.0  36.0 -99.0 0.050  6.75-99.00 18.93-99.00
  190.       0.137 0.263 0.398 0.213 0.688  1.50 0.473  22.7  35.9 -99.0 0.050  6.78-99.00 18.91-99.00
  210.       0.136 0.262 0.398 0.180 0.700  1.51 0.440  22.5  35.9 -99.0 0.050  6.80-99.00 18.90-99.00
                    
    5.-99.00 -99.0 -99.0 -99.0 -99.0 -99.0 -99.0 -99.0 -99.0 -99.0-99.00 -99.0 -99.0 -99.0 -99.0 -99.0  -99.  -99.
   15.-99.00 -99.0 -99.0 -99.0 -99.0 -99.0 -99.0 -99.0 -99.0 -99.0-99.00 -99.0 -99.0 -99.0 -99.0 -99.0  -99.  -99.
   20.-99.00 -99.0 -99.0 -99.0 -99.0 -99.0 -99.0 -99.0 -99.0 -99.0-99.00 -99.0 -99.0 -99.0 -99.0 -99.0  -99.  -99.
   30.-99.00 -99.0 -99.0 -99.0 -99.0 -99.0 -99.0 -99.0 -99.0 -99.0-99.00 -99.0 -99.0 -99.0 -99.0 -99.0  -99.  -99.
   40.-99.00 -99.0 -99.0 -99.0 -99.0 -99.0 -99.0 -99.0 -99.0 -99.0-99.00 -99.0 -99.0 -99.0 -99.0 -99.0  -99.  -99.
   50.-99.00 -99.0 -99.0 -99.0 -99.0 -99.0 -99.0 -99.0 -99.0 -99.0-99.00 -99.0 -99.0 -99.0 -99.0 -99.0  -99.  -99.
   60.-99.00 -99.0 -99.0 -99.0 -99.0 -99.0 -99.0 -99.0 -99.0 -99.0-99.00 -99.0 -99.0 -99.0 -99.0 -99.0  -99.  -99.
   70.-99.00 -99.0 -99.0 -99.0 -99.0 -99.0 -99.0 -99.0 -99.0 -99.0-99.00 -99.0 -99.0 -99.0 -99.0 -99.0  -99.  -99.
   90.-99.00 -99.0 -99.0 -99.0 -99.0 -99.0 -99.0 -99.0 -99.0 -99.0-99.00 -99.0 -99.0 -99.0 -99.0 -99.0  -99.  -99.
  110.-99.00 -99.0 -99.0 -99.0 -99.0 -99.0 -99.0 -99.0 -99.0 -99.0-99.00 -99.0 -99.0 -99.0 -99.0 -99.0  -99.  -99.
  130.-99.00 -99.0 -99.0 -99.0 -99.0 -99.0 -99.0 -99.0 -99.0 -99.0-99.00 -99.0 -99.0 -99.0 -99.0 -99.0  -99.  -99.
  150.-99.00 -99.0 -99.0 -99.0 -99.0 -99.0 -99.0 -99.0 -99.0 -99.0-99.00 -99.0 -99.0 -99.0 -99.0 -99.0  -99.  -99.
  170.-99.00 -99.0 -99.0 -99.0 -99.0 -99.0 -99.0 -99.0 -99.0 -99.0-99.00 -99.0 -99.0 -99.0 -99.0 -99.0  -99.  -99.
  190.-99.00 -99.0 -99.0 -99.0 -99.0 -99.0 -99.0 -99.0 -99.0 -99.0-99.00 -99.0 -99.0 -99.0 -99.0 -99.0  -99.  -99.
  210.-99.00 -99.0 -99.0 -99.0 -99.0 -99.0 -99.0 -99.0 -99.0 -99.0-99.00 -99.0 -99.0 -99.0 -99.0 -99.0  -99.  -99.
                    
    5.-99.00-99.00-99.00-99.00
   15.-99.00-99.00-99.00-99.00
   20.-99.00-99.00-99.00-99.00
   30.-99.00-99.00-99.00-99.00
   40.-99.00-99.00-99.00-99.00
   50.-99.00-99.00-99.00-99.00
   60.-99.00-99.00-99.00-99.00
   70.-99.00-99.00-99.00-99.00
   90.-99.00-99.00-99.00-99.00
  110.-99.00-99.00-99.00-99.00
  130.-99.00-99.00-99.00-99.00
  150.-99.00-99.00-99.00-99.00
  170.-99.00-99.00-99.00-99.00
  190.-99.00-99.00-99.00-99.00
  210.-99.00-99.00-99.00-99.00
*CULTIVAR           
AW0005 Bacanora 88      IB0003   1.20  2.30 400.0 750.0 120.0  28.5  3.50  3.00 400.0
